**  *******************************************************************
**   Abaqus/fromAnsys 6.16-1
** 
**   reading Ansys data from: C:\Users\Administrator\Desktop\0530.cdb
**     creating Abaqus input: C:\Users\Administrator\Desktop\0530.inp
**    writing diagnostics to: C:\Users\Administrator\Desktop\0530.log
** 
**   Ansys Commands processed:
**        command   number
**   ------------   ------
**           ACEL        1
**          CGLOC        1
**        CGOMEGA        1
**         DCGOMG        1
**         DOMEGA        1
**         EBLOCK        1
**             ET        2
**         MPTEMP        6
**         MPDATA        6
**         NBLOCK        1
**          OMEGA        1
**           *SET       21
**           TIME        1
**   Ansys Commands NOT processed:
**        command   number
**   ------------   ------
**         ALPHAD        1
**          BETAD        1
**         BFUNIF        1
**         CRPLIM        2
**         DMPRAT        1
**            DOF        1
**          *ELSE        1
**         *ENDIF        1
**          ERESX        1
**         EXTOPT        3
**         FINISH        1
**            /GO        1
**            *IF        1
**           IRLF        1
**           KUSE        1
**              N        2
**           NCNV        1
**          NEQIT        1
**          /NOPR        1
**         NUMOFF        5
**         /PREP7        1
**        SECTYPE        4
**         /TITLE        1
**           TREF        1
** 
*Heading
** Job name: try3 Model name: new3
** Generated by: Abaqus/CAE 2016
*Preprint, echo=NO, model=NO, history=NO, contact=NO
**
** PARTS
**
*Part, name=PART-1
*Node
      1,           0.,           0.,           0.
      2,           0.,           0.,           3.
      3,           0.,           0.,          1.5
      4,    5.4000001,           0.,           0.
      5,    5.4000001,           0.,           3.
      6,    5.4000001,           0.,          1.5
      7,   10.8000002,           0.,           0.
      8,   10.8000002,           0.,           3.
      9,   10.8000002,           0.,          1.5
     10,   16.2000008,           0.,           0.
     11,   16.2000008,           0.,           3.
     12,   16.2000008,           0.,          1.5
     13,   21.6000004,           0.,           0.
     14,   21.6000004,           0.,           3.
     15,   21.6000004,           0.,          1.5
     16,          27.,           0.,           0.
     17,          27.,           0.,           3.
     18,          27.,           0.,          1.5
     19,          27.,    5.4000001,           0.
     20,          27.,    5.4000001,           3.
** ... 509 like lines cut
*Element, type=B31
  1,   1,   3
  2,   3,   2
  3,   4,   6
  4,   6,   5
  5,   7,   9
  6,   9,   8
  7,  10,  12
  8,  12,  11
  9,  13,  15
 10,  15,  14
 11,  16,  18
 12,  18,  17
 13,  19,  21
 14,  21,  20
 15,  22,  24
 16,  24,  23
 17,  25,  27
 18,  27,  26
 19,  28,  30
 20,  30,  29
** ... 600 like lines cut
*Element, type=S4R
125,  71,  73, 111,  97
126,  73,  68,  98, 111
127,  97, 111,  83,  38
128, 111,  98,  41,  83
129,  68,  74, 112,  98
130,  74,  65, 103, 112
131,  98, 112,  82,  41
132, 112, 103,  44,  82
133,  65,  75, 113, 103
134,  75,  62, 104, 113
135, 103, 113,  81,  44
136, 113, 104,  47,  81
137,  62,  76, 114, 104
138,  76,  59, 109, 114
139, 104, 114,  80,  47
140, 114, 109,  50,  80
141,  59,  77, 115, 109
142,  77,  56,  78, 115
143, 109, 115,  79,  50
144, 115,  78,  53,  79
** ... 280 like lines cut
*Elset, elset=ES2_M1_E1_R1
   1,   2,   3,   4,   5,   6,   7,   8,   9,  10,  11,  12,  13,  14,  15,  16
  17,  18,  19,  20,  21,  22,  23,  24,  25,  26,  27,  28,  29,  30,  31,  32
  33,  34,  35,  36,  37,  38,  39,  40,  41,  42,  43,  44,  45,  46,  47,  48
 185, 186, 187, 188, 189, 190, 191, 192, 193, 194, 195, 196, 197, 198, 199, 200
 201, 202, 203, 204, 205, 206, 207, 208, 209, 210, 211, 212, 213, 214, 215, 216
 217, 218, 219, 220, 221, 222, 223, 224, 225, 226, 227, 228, 229, 230, 231, 232
 309, 310, 311, 312, 313, 314, 315, 316, 317, 318, 319, 320, 321, 322, 323, 324
 325, 326, 327, 328, 329, 330, 331, 332, 333, 334, 335, 336, 337, 338, 339, 340
 341, 342, 343, 344, 345, 346, 347, 348, 349, 350, 351, 352, 353, 354, 355, 356
 433, 434, 435, 436, 437, 438, 439, 440, 441, 442, 443, 444, 445, 446, 447, 448
 449, 450, 451, 452, 453, 454, 455, 456, 457, 458, 459, 460, 461, 462, 463, 464
 465, 466, 467, 468, 469, 470, 471, 472, 473, 474, 475, 476, 477, 478, 479, 480
 557, 558, 559, 560, 561, 562, 563, 564, 565, 566, 567, 568, 569, 570, 571, 572
 573, 574, 575, 576, 577, 578, 579, 580, 581, 582, 583, 584, 585, 586, 587, 588
 589, 590, 591, 592, 593, 594, 595, 596, 597, 598, 599, 600, 601, 602, 603, 604
*Elset, elset=ES3_M1_E1_R1
  49,  50,  51,  52,  53,  54,  55,  56,  57,  58,  59,  60,  71,  72,  83,  84
  85,  86,  87,  88,  89,  90,  91,  92,  93,  94,  95,  96,  97,  98, 123, 124
 233, 234, 235, 236, 237, 238, 239, 240, 241, 242, 243, 244, 255, 256, 267, 268
 269, 270, 271, 272, 273, 274, 275, 276, 277, 278, 279, 280, 281, 282, 307, 308
 357, 358, 359, 360, 361, 362, 363, 364, 365, 366, 367, 368, 379, 380, 391, 392
 393, 394, 395, 396, 397, 398, 399, 400, 401, 402, 403, 404, 405, 406, 431, 432
 481, 482, 483, 484, 485, 486, 487, 488, 489, 490, 491, 492, 503, 504, 515, 516
 517, 518, 519, 520, 521, 522, 523, 524, 525, 526, 527, 528, 529, 530, 555, 556
 605, 606, 607, 608, 609, 610, 611, 612, 613, 614, 615, 616, 627, 628, 639, 640
 641, 642, 643, 644, 645, 646, 647, 648, 649, 650, 651, 652, 653, 654, 679, 680
*Elset, elset=ES4_M1_E1_R1
  61,  62,  63,  64,  65,  66,  67,  68,  69,  70,  73,  74,  75,  76,  77,  78
  79,  80,  81,  82,  99, 100, 101, 102, 103, 104, 105, 106, 107, 108, 109, 110
 111, 112, 113, 114, 115, 116, 117, 118, 119, 120, 121, 122, 245, 246, 247, 248
 249, 250, 251, 252, 253, 254, 257, 258, 259, 260, 261, 262, 263, 264, 265, 266
 283, 284, 285, 286, 287, 288, 289, 290, 291, 292, 293, 294, 295, 296, 297, 298
 299, 300, 301, 302, 303, 304, 305, 306, 369, 370, 371, 372, 373, 374, 375, 376
 377, 378, 381, 382, 383, 384, 385, 386, 387, 388, 389, 390, 407, 408, 409, 410
 411, 412, 413, 414, 415, 416, 417, 418, 419, 420, 421, 422, 423, 424, 425, 426
 427, 428, 429, 430, 493, 494, 495, 496, 497, 498, 499, 500, 501, 502, 505, 506
 507, 508, 509, 510, 511, 512, 513, 514, 531, 532, 533, 534, 535, 536, 537, 538
 539, 540, 541, 542, 543, 544, 545, 546, 547, 548, 549, 550, 551, 552, 553, 554
 617, 618, 619, 620, 621, 622, 623, 624, 625, 626, 629, 630, 631, 632, 633, 634
 635, 636, 637, 638, 655, 656, 657, 658, 659, 660, 661, 662, 663, 664, 665, 666
 667, 668, 669, 670, 671, 672, 673, 674, 675, 676, 677, 678
*Elset, elset=ES5_M1_E2_R1
  125,  126,  127,  128,  129,  130,  131,  132,  133,  134,  135,  136,  137,  138,  139,  140
  141,  142,  143,  144,  145,  146,  147,  148,  149,  150,  151,  152,  153,  154,  155,  156
  157,  158,  159,  160,  161,  162,  163,  164,  165,  166,  167,  168,  169,  170,  171,  172
  173,  174,  175,  176,  177,  178,  179,  180,  181,  182,  183,  184,  689,  690,  691,  692
  699,  700,  701,  702,  709,  710,  711,  712,  719,  720,  721,  722,  729,  730,  731,  732
  739,  740,  741,  742,  747,  748,  749,  750,  755,  756,  757,  758,  763,  764,  765,  766
  771,  772,  773,  774,  781,  782,  783,  784,  789,  790,  791,  792,  797,  798,  799,  800
  805,  806,  807,  808,  813,  814,  815,  816,  825,  826,  827,  828,  835,  836,  837,  838
  845,  846,  847,  848,  855,  856,  857,  858,  865,  866,  867,  868,  875,  876,  877,  878
  883,  884,  885,  886,  891,  892,  893,  894,  899,  900,  901,  902,  907,  908,  909,  910
  917,  918,  919,  920,  925,  926,  927,  928,  933,  934,  935,  936,  941,  942,  943,  944
  949,  950,  951,  952,  961,  962,  963,  964,  971,  972,  973,  974,  981,  982,  983,  984
  991,  992,  993,  994, 1001, 1002, 1003, 1004, 1011, 1012, 1013, 1014, 1019, 1020, 1021, 1022
 1027, 1028, 1029, 1030, 1035, 1036, 1037, 1038, 1043, 1044, 1045, 1046, 1053, 1054, 1055, 1056
 1061, 1062, 1063, 1064, 1069, 1070, 1071, 1072, 1077, 1078, 1079, 1080, 1085, 1086, 1087, 1088
 1097, 1098, 1099, 1100, 1107, 1108, 1109, 1110, 1117, 1118, 1119, 1120, 1127, 1128, 1129, 1130
 1137, 1138, 1139, 1140, 1147, 1148, 1149, 1150, 1155, 1156, 1157, 1158, 1163, 1164, 1165, 1166
 1171, 1172, 1173, 1174, 1179, 1180, 1181, 1182, 1189, 1190, 1191, 1192, 1197, 1198, 1199, 1200
 1205, 1206, 1207, 1208, 1213, 1214, 1215, 1216, 1221, 1222, 1223, 1224
*Elset, elset=_I2, internal
  49,  50,  51,  52,  53,  54,  55,  56,  57,  58,  85,  86,  87,  88,  89,  90
  91,  92,  93,  94, 233, 234, 235, 236, 237, 238, 239, 240, 241, 242, 269, 270
 271, 272, 273, 274, 275, 276, 277, 278, 357, 358, 359, 360, 361, 362, 363, 364
 365, 366, 393, 394, 395, 396, 397, 398, 399, 400, 401, 402, 481, 482, 483, 484
 485, 486, 487, 488, 489, 490, 517, 518, 519, 520, 521, 522, 523, 524, 525, 526
 605, 606, 607, 608, 609, 610, 611, 612, 613, 614, 641, 642, 643, 644, 645, 646
 647, 648, 649
*Elset, elset=_I3, internal
  59,  60,  71,  72,  83,  84,  95,  96,  97,  98, 123, 124, 243, 244, 255, 256
 267, 268, 279, 280, 281, 282, 307, 308, 367, 368, 379, 380, 391, 392, 403, 404
 405, 406, 431, 432, 491, 492, 503, 504, 515, 516, 527, 528, 529, 530, 555, 556
 615, 616, 627, 628, 639, 640, 650, 651, 652, 653, 654, 679, 680
*Elset, elset=_I4, internal
  61,  62,  63,  64,  65,  66,  67,  68,  69,  70,  73,  74,  75,  76,  77,  78
  79,  80,  81,  82, 245, 246, 247, 248, 249, 250, 251, 252, 253, 254, 257, 258
 259, 260, 261, 262, 263, 264, 265, 266, 369, 370, 371, 372, 373, 374, 375, 376
 377, 378, 381, 382, 383, 384, 385, 386, 387, 388, 389, 390, 493, 494, 495, 496
 497, 498, 499, 500, 501, 502, 505, 506, 507, 508, 509, 510, 511, 512, 513, 514
 617, 618, 619, 620, 621, 622, 623, 624, 625, 626, 629, 630, 631, 632, 633, 634
 635, 636, 637, 638
*Elset, elset=_I5, internal
  99, 100, 101, 102, 103, 104, 105, 106, 107, 108, 109, 110, 111, 112, 113, 114
 115, 116, 117, 118, 119, 120, 121, 122, 283, 284, 285, 286, 287, 288, 289, 290
 291, 292, 293, 294, 295, 296, 297, 298, 299, 300, 301, 302, 303, 304, 305, 306
 407, 408, 409, 410, 411, 412, 413, 414, 415, 416, 417, 418, 419, 420, 421, 422
 423, 424, 425, 426, 427, 428, 429, 430, 531, 532, 533, 534, 535, 536, 537, 538
 539, 540, 541, 542, 543, 544, 545, 546, 547, 548, 549, 550, 551, 552, 553, 554
 655, 656, 657, 658, 659, 660, 661, 662, 663, 664, 665, 666, 667, 668, 669, 670
 671, 672, 673, 674, 675, 676, 677, 678
** Section: Section-1-ES2_M1_E1_R1  Profile: Profile-1
*Beam Section, elset=ES2_M1_E1_R1, material=MATERIAL-1, temperature=GRADIENTS, section=RECT
0.5, 0.5
0.,1.,0.
** Section: Section-2-_I2  Profile: Profile-2
*Beam Section, elset=_I2, material=MATERIAL-1, temperature=GRADIENTS, section=RECT
0.3, 0.5
0.,-1.,0.
** Section: Section-3-_I3  Profile: Profile-3
*Beam Section, elset=_I3, material=MATERIAL-1, temperature=GRADIENTS, section=RECT
0.3, 0.5
0.,0.,-1.
** Section: Section-4-_I4  Profile: Profile-4
*Beam Section, elset=_I4, material=MATERIAL-1, temperature=GRADIENTS, section=I
0.25, 0.5, 0.2, 0.2, 0.016, 0.016, 0.01
0.,1.,-0.
** Section: Section-5-_I5  Profile: Profile-5
*Beam Section, elset=_I5, material=MATERIAL-1, temperature=GRADIENTS, section=I
0.25, 0.5, 0.2, 0.2, 0.016, 0.016, 0.01
0.,0.,-1.
** Section: Section-6-ES5_M1_E2_R1
*Shell Section, elset=ES5_M1_E2_R1, material=MATERIAL-1
1., 3
*End Part
**  
**
** ASSEMBLY
**
*Assembly, name=Assembly
**  
*Instance, name=PART-1-1, part=PART-1
*End Instance
**  
*Nset, nset=SET-1, instance=PART-1-1
   1,   2,   3,   4,   5,   6,   7,   8,   9,  10,  11,  12,  13,  14,  15,  16
  17,  18,  19,  20,  21,  22,  23,  24,  25,  26,  27,  28,  29,  30,  31,  32
  33,  34,  35,  36,  37,  38,  39,  40,  41,  42,  43,  44,  45,  46,  47,  48
  49,  50,  51,  52,  53,  54,  55,  56,  57,  58,  59,  60,  61,  62,  63,  64
  65,  66,  67,  68,  69,  70,  71,  72,  73,  74,  75,  76,  77,  78,  79,  80
  81,  82,  83,  84,  85,  86,  87,  88,  89,  90,  91,  92,  93,  94,  95,  96
  97,  98,  99, 100, 101, 102, 103, 104, 105, 106, 107, 108, 109, 110, 111, 112
 113, 114, 115, 116, 117, 118, 119, 120, 121, 122, 123, 124, 125, 127, 128, 130
 131, 133, 134, 136, 137, 139, 140, 142, 143, 145, 146, 148, 149, 151, 152, 154
 155, 157, 158, 160, 161, 163, 164, 166, 167, 169, 170, 172, 173, 175, 176, 178
 179, 181, 182, 184, 185, 187, 188, 190, 191, 193, 194, 196, 197, 198, 199, 200
 201, 202, 203, 204, 205, 206, 207, 208, 209, 210, 211, 212, 213, 214, 215, 216
 217, 218, 219, 220, 221, 222, 223, 224, 225, 226, 227, 228, 229, 230, 231, 232
 233, 234, 235, 237, 238, 240, 241, 243, 244, 246, 247, 249, 250, 252, 253, 255
 256, 258, 259, 261, 262, 264, 265, 267, 268, 270, 271, 273, 274, 276, 277, 279
 280, 282, 283, 285, 286, 288, 289, 291, 292, 294, 295, 297, 298, 300, 301, 303
 304, 306, 307, 308, 309, 310, 311, 312, 313, 314, 315, 316, 317, 318, 319, 320
 321, 322, 323, 324, 325, 326, 327, 328, 329, 330, 331, 332, 333, 334, 335, 336
 337, 338, 339, 340, 341, 342, 343, 344, 345, 347, 348, 350, 351, 353, 354, 356
 357, 359, 360, 362, 363, 365, 366, 368, 369, 371, 372, 374, 375, 377, 378, 380
** ... 14 like lines cut
*Nset, nset=SET-2, instance=PART-1-1, generate
  1,  70,   3
*Nset, nset=SET-3, instance=PART-1-1
   1,   2,   3,   4,   5,   6,   7,   8,   9,  10,  11,  12,  13,  14,  15,  16
  17,  18,  19,  20,  21,  22,  23,  24,  25,  26,  27,  28,  29,  30,  31,  32
  33,  34,  35,  36,  37,  38,  39,  40,  41,  42,  43,  44,  45,  46,  47,  48
  49,  50,  51,  52,  53,  54,  55,  56,  57,  58,  59,  60,  61,  62,  63,  64
  65,  66,  67,  68,  69,  70,  71,  72,  73,  74,  75,  76,  77,  78,  79,  80
  81,  82,  83,  84,  85,  86,  87,  88,  89,  90,  91,  92,  93,  94,  95,  96
  97,  98,  99, 100, 101, 102, 103, 104, 105, 106, 107, 108, 109, 110, 111, 112
 113, 114, 115, 116, 117, 118, 119, 120, 121, 122, 123, 124, 125, 127, 128, 130
 131, 133, 134, 136, 137, 139, 140, 142, 143, 145, 146, 148, 149, 151, 152, 154
 155, 157, 158, 160, 161, 163, 164, 166, 167, 169, 170, 172, 173, 175, 176, 178
 179, 181, 182, 184, 185, 187, 188, 190, 191, 193, 194, 196, 197, 198, 199, 200
 201, 202, 203, 204, 205, 206, 207, 208, 209, 210, 211, 212, 213, 214, 215, 216
 217, 218, 219, 220, 221, 222, 223, 224, 225, 226, 227, 228, 229, 230, 231, 232
 233, 234, 235, 237, 238, 240, 241, 243, 244, 246, 247, 249, 250, 252, 253, 255
 256, 258, 259, 261, 262, 264, 265, 267, 268, 270, 271, 273, 274, 276, 277, 279
 280, 282, 283, 285, 286, 288, 289, 291, 292, 294, 295, 297, 298, 300, 301, 303
 304, 306, 307, 308, 309, 310, 311, 312, 313, 314, 315, 316, 317, 318, 319, 320
 321, 322, 323, 324, 325, 326, 327, 328, 329, 330, 331, 332, 333, 334, 335, 336
 337, 338, 339, 340, 341, 342, 343, 344, 345, 347, 348, 350, 351, 353, 354, 356
 357, 359, 360, 362, 363, 365, 366, 368, 369, 371, 372, 374, 375, 377, 378, 380
** ... 14 like lines cut
*Nset, nset=_PICKEDSET7, internal, instance=PART-1-1, generate
  1,  70,   3
*End Assembly
*Amplitude, name=AMP-1, definition=SMOOTH STEP
           0.02,          0.0063,            0.04,         0.00364,            0.06,         0.00099,            0.08,         0.00428
            0.1,         0.00758,            0.12,         0.01087,            0.14,         0.00682,            0.16,         0.00277
           0.18,        -0.00128,             0.2,         0.00368,            0.22,         0.00864,            0.24,          0.0136
           0.26,         0.00727,            0.28,         0.00094,             0.3,          0.0042,            0.32,         0.00221
           0.34,         0.00021,            0.36,         0.00444,            0.38,         0.00867,             0.4,          0.0129
           0.42,         0.01713,            0.44,        -0.00343,            0.46,          -0.024,            0.48,        -0.00992
            0.5,         0.00416,            0.52,         0.00528,            0.54,         0.01653,            0.56,         0.02779
           0.58,         0.03904,             0.6,         0.02449,            0.62,         0.00995,            0.64,         0.00961
           0.66,         0.00926,            0.68,         0.00892,             0.7,        -0.00486,            0.72,        -0.01864
           0.74,        -0.03242,            0.76,        -0.03365,            0.78,        -0.05723,             0.8,        -0.04534
           0.82,        -0.03346,            0.84,        -0.03201,            0.86,        -0.03056,            0.88,        -0.02911
            0.9,        -0.02766,            0.92,        -0.04116,            0.94,        -0.05466,            0.96,        -0.06816
           0.98,        -0.08166,              1.,        -0.06846,            1.02,        -0.05527,            1.04,        -0.04208
           1.06,        -0.04259,            1.08,        -0.04311,             1.1,        -0.02428,            1.12,        -0.00545
           1.14,         0.01338,            1.16,         0.03221,            1.18,         0.05104,             1.2,         0.06987
           1.22,          0.0887,            1.24,         0.04524,            1.26,         0.00179,            1.28,        -0.04167
            1.3,        -0.08513,            1.32,        -0.12858,            1.34,        -0.17204,            1.36,        -0.12908
           1.38,        -0.08613,             1.4,        -0.08902,            1.42,        -0.09192,            1.44,        -0.09482
           1.46,        -0.09324,            1.48,        -0.09166,             1.5,        -0.09478,            1.52,        -0.09789
           1.54,        -0.12902,            1.56,        -0.07652,            1.58,        -0.02401,             1.6,         0.02849
** ... 368 like lines cut
** 
** MATERIALS
** 
**   ---------------------------------------------------
**   ---- *MATERIAL ------------------------------------
**   ---------------------------------------------------
** 
*Material, name=MATERIAL-1
*Damping, alpha=1., beta=0.3, composite=10., structural=20.
*Density
2500.,
*Elastic
 3e+10, 0.2
*Material, name=MATERIAL-2
*Damping, alpha=1., beta=0.3, composite=10., structural=20.
*Density
7800.,
*Elastic
 2e+11, 0.3
** ----------------------------------------------------------------
** 
** STEP: Step-2
** 
*Step, name=Step-2, nlgeom=NO, inc=10000
*Dynamic,direct
0.02,31.,
** 
** BOUNDARY CONDITIONS
** 
** Name: Acc-BC-1 Type: Acceleration/Angular acceleration
*Boundary, amplitude=AMP-1, type=ACCELERATION
_PICKEDSET7, 1, 1, 1.
** Name: Acc-BC-2 Type: Acceleration/Angular acceleration
*Boundary, amplitude=AMP-1, type=ACCELERATION
_PICKEDSET7, 2, 2
** Name: Acc-BC-3 Type: Acceleration/Angular acceleration
*Boundary, amplitude=AMP-1, type=ACCELERATION
_PICKEDSET7, 3, 3
** Name: Acc-BC-4 Type: Acceleration/Angular acceleration
*Boundary, amplitude=AMP-1, type=ACCELERATION
_PICKEDSET7, 4, 4
** Name: Acc-BC-5 Type: Acceleration/Angular acceleration
*Boundary, amplitude=AMP-1, type=ACCELERATION
_PICKEDSET7, 5, 5
** Name: Acc-BC-6 Type: Acceleration/Angular acceleration
*Boundary, amplitude=AMP-1, type=ACCELERATION
_PICKEDSET7, 6, 6
** 
** LOADS
** 
** Name: GRAVITY-1   Type: Gravity
*Dload
, GRAV, 9.8, 0., 0., -1.
** 
** OUTPUT REQUESTS
** 
*Restart, write, frequency=0
** 
** FIELD OUTPUT: F-Output-1
** 
*Output, field, frequency=1
*Node Output, nset=SET-1
A, U
** 
** HISTORY OUTPUT: H-Output-1
** 
*Output, history, frequency=1
*Node Output, nset=SET-1
A1, 
*End Step
