**     *******************************************************************
**      Abaqus/fromAnsys 6.17-1
** 
**      reading Ansys data from: C:\Users\Administrator\Desktop\Homework070302.c
** d
**  b
**        creating Abaqus input: C:\Users\Administrator\Desktop\Homework070302.i
** n
**  p
**       writing diagnostics to: C:\Users\Administrator\Desktop\Homework070302.l
** o
**  g
** 
**      Ansys Commands processed:
**           command   number
**      ------------   ------
**              ACEL        1
**            ANTYPE        1
**             CGLOC        1
**           CGOMEGA        1
**                 D       72
**            DCGOMG        1
**            DOMEGA        1
**            EBLOCK        1
**                ET        4
**             EQSLV        1
**            MPTEMP        8
**            MPDATA        8
**            NBLOCK        1
**             OMEGA        1
**           RLBLOCK        1
**              *SET       39
**      Ansys Commands NOT processed:
**           command   number
**      ------------   ------
**            ALPHAD        1
**             BETAD        1
**            BFUNIF        1
**              *DIM        3
**            DMPRAT        1
**               DOF        1
**             *ELSE        1
**            *ENDIF        1
**             ERESX        1
**            EXTOPT        3
**            FINISH        1
**               /GO        1
**               *IF        1
**               KBC        1
**                 N        1
**             /NOPR        1
**            NUMOFF        5
**            /PREP7        1
**            /TITLE        1
**              TREF        1
** 
*Heading
** Job name: Job-1 Model name: Job-10
** Generated by: Abaqus/CAE 2016
*Preprint, echo=NO, model=NO, history=NO, contact=NO
**
** PARTS
**
*Part, name=PART-1
*Node
      1,           0.,           0.,           0.
      2,           0.,           0.,           4.
      3,           0.,           0.,           2.
      4,    5.4000001,           0.,           0.
      5,    5.4000001,           0.,           4.
      6,    5.4000001,           0.,           2.
      7,   10.8000002,           0.,           0.
      8,   10.8000002,           0.,           4.
      9,   10.8000002,           0.,           2.
     10,   16.2000008,           0.,           0.
     11,   16.2000008,           0.,           4.
     12,   16.2000008,           0.,           2.
     13,           0.,    5.4000001,           0.
     14,           0.,    5.4000001,           4.
     15,           0.,    5.4000001,           2.
     16,    5.4000001,    5.4000001,           0.
     17,    5.4000001,    5.4000001,           4.
     18,    5.4000001,    5.4000001,           2.
     19,   10.8000002,    5.4000001,           0.
     20,   10.8000002,    5.4000001,           4.
** ... 133 like lines cut
*Element, type=B31
  1,   1,   3
  2,   3,   2
  3,   4,   6
  4,   6,   5
  5,   7,   9
  6,   9,   8
  7,  10,  12
  8,  12,  11
  9,  13,  15
 10,  15,  14
 11,  16,  18
 12,  18,  17
 13,  19,  21
 14,  21,  20
 15,  22,  24
 16,  24,  23
 17,  25,  27
 18,  27,  26
 19,  28,  30
 20,  30,  29
** ... 222 like lines cut
*Element, type=S4
243,   2,  85, 136,  91
244,  85,   5, 115, 136
245,  91, 136, 119,  14
246, 136, 115,  17, 119
247,  14, 119, 137,  92
248, 119,  17, 116, 137
249,  92, 137,  86,  26
250, 137, 116,  29,  86
251,   5,  87, 138, 115
252,  87,   8, 117, 138
253, 115, 138, 120,  17
254, 138, 117,  20, 120
255,  17, 120, 139, 116
256, 120,  20, 118, 139
257, 116, 139,  88,  29
258, 139, 118,  32,  88
259,   8,  89, 140, 117
260,  89,  11,  93, 140
261, 117, 140, 121,  20
262, 140,  93,  23, 121
** ... 52 like lines cut
*Elset, elset=ES2_M1_E2_R2
   1,   2,   3,   4,   5,   6,   7,   8,   9,  10,  11,  12,  13,  14,  15,  16
  17,  18,  19,  20,  21,  22,  23,  24,  25,  26,  27,  28,  29,  30,  31,  32
  33,  34,  35,  36,  37,  38,  39,  40,  41,  42,  43,  44,  45,  46,  47,  48
  49,  50,  51,  52,  53,  54,  55,  56,  57,  58,  59,  60,  61,  62,  63,  64
  65,  66,  67,  68,  69,  70,  71,  72,  73,  74,  75,  76,  77,  78,  79,  80
  81,  82,  83,  84,  85,  86,  87,  88,  89,  90,  91,  92,  93,  94,  95,  96
  97,  98,  99, 100, 101, 102, 103, 104, 105, 106, 107, 108, 109, 110, 111, 112
 113, 114, 115, 116, 117, 118, 119, 120, 121, 122, 123, 124, 125, 126, 127, 128
 129, 130, 131, 132, 175, 176, 181, 182, 185, 186, 187, 188, 189, 190, 197, 198
 199, 200, 201, 202, 205, 206, 207, 208, 209, 210, 215, 216, 219, 220, 221, 222
 223, 224, 231, 232, 233, 234, 235, 236, 239, 240, 241, 242
*Elset, elset=ES3_M2_E3_R3
 133, 134, 135, 136, 137, 138, 139, 140, 141, 142, 143, 144, 145, 146, 147, 148
 149, 150, 151, 152, 153, 154, 155, 156, 157, 158, 159, 160, 161, 162, 163, 164
 165, 166, 167, 168, 169, 170, 171, 172, 173, 174, 177, 178, 179, 180, 183, 184
 191, 192, 193, 194, 195, 196, 203, 204, 211, 212, 213, 214, 217, 218, 225, 226
 227, 228, 229, 230, 237, 238
*Elset, elset=ES4_M1_E4_R4, generate
 243,  314,    1
*Elset, elset=SET-4
 113, 114, 115, 116, 117, 118, 119, 120, 121, 122, 123, 124, 125, 126, 127, 128
 129, 130, 131, 132, 161, 162, 163, 164, 165, 166, 167, 168, 169, 170, 171, 172
 173, 174, 209, 210, 211, 212, 213, 214, 215, 216, 217, 218, 219, 220, 221, 222
 223, 224, 225, 226, 227, 228, 229, 230, 231, 232, 233, 234, 235, 236, 237, 238
 239, 240, 241, 242
*Elset, elset=SET-5
  73,  74,  75,  76,  77,  78,  79,  80,  81,  82,  83,  84,  85,  86,  87,  88
  89,  90,  91,  92,  93,  94,  95,  96,  97,  98,  99, 100, 101, 102, 103, 104
 105, 106, 107, 108, 109, 110, 111, 112, 133, 134, 135, 136, 137, 138, 139, 140
 141, 142, 143, 144, 145, 146, 147, 148, 149, 150, 151, 152, 153, 154, 155, 156
 157, 158, 159, 160, 175, 176, 177, 178, 179, 180, 181, 182, 183, 184, 185, 186
 187, 188, 189, 190, 191, 192, 193, 194, 195, 196, 197, 198, 199, 200, 201, 202
 203, 204, 205, 206, 207, 208
*Elset, elset=_I1, internal, generate
  1,  72,   1
*Elset, elset=_I2, internal
  73,  74,  75,  76,  77,  78,  79,  80,  81,  82,  83,  84,  85,  86,  87,  88
  89,  90,  91,  92,  93,  94,  95,  96,  97,  98,  99, 100, 101, 102, 103, 104
 105, 106, 107, 108, 109, 110, 111, 112, 175, 176, 181, 182, 185, 186, 187, 188
 189, 190, 197, 198, 199, 200, 201, 202, 205, 206, 207, 208
*Elset, elset=_I3, internal
 113, 114, 115, 116, 117, 118, 119, 120, 121, 122, 123, 124, 125, 126, 127, 128
 129, 130, 131, 132, 209, 210, 215, 216, 219, 220, 221, 222, 223, 224, 231, 232
 233, 234, 235, 236, 239, 240, 241, 242
*Elset, elset=_I4, internal
 133, 134, 135, 136, 137, 138, 139, 140, 141, 142, 143, 144, 145, 146, 147, 148
 149, 150, 151, 152, 153, 154, 155, 156, 157, 158, 159, 160, 177, 178, 179, 180
 183, 184, 191, 192, 193, 194, 195, 196, 203, 204
*Elset, elset=_I5, internal
 161, 162, 163, 164, 165, 166, 167, 168, 169, 170, 171, 172, 173, 174, 211, 212
 213, 214, 217, 218, 225, 226, 227, 228, 229, 230, 237, 238
** Section: Section-1-_I1  Profile: Profile-1
*Beam General Section, elset=_I1, section=GENERAL
0.15, 0.001125, 0., 0.001125, 0.00425
0.,1.,0.
 3e+10, 1.25e+10,       0.
*Section Points
0.15, 0.25, 0.15, -0.25, -0.15, -0.25, -0.15, 0.25
** Section: Section-2-_I2  Profile: Profile-2
*Beam General Section, elset=_I2, section=GENERAL
0.15, 0.001125, 0., 0.001125, 0.00425
0.,0.,-1.
 3e+10, 1.25e+10,       0.
*Section Points
0.15, 0.25, 0.15, -0.25, -0.15, -0.25, -0.15, 0.25
** Section: Section-3-_I3  Profile: Profile-3
*Beam General Section, elset=_I3, section=GENERAL
0.15, 0.001125, 0., 0.001125, 0.00425
0.,0.,-1.
 3e+10, 1.25e+10,       0.
*Section Points
0.15, 0.25, 0.15, -0.25, -0.15, -0.25, -0.15, 0.25
** Section: Section-4-_I4  Profile: Profile-4
*Beam General Section, elset=_I4, section=GENERAL
0.01108, 0.00046037, 0., 2.1372e-05, 0.00048174
0.,0.,-1.
 2.1e+11, 8.75e+10,       0.
*Section Points
0.1, 0.25, 0.1, -0.25, -0.1, -0.25, -0.1, 0.25
** Section: Section-5-_I5  Profile: Profile-5
*Beam General Section, elset=_I5, section=GENERAL
0.01108, 0.00046037, 0., 2.1372e-05, 0.00048174
0.,0.,-1.
 2.1e+11, 8.75e+10,       0.
*Section Points
0.1, 0.25, 0.1, -0.25, -0.1, -0.25, -0.1, 0.25
** Section: Section-6-ES4_M1_E4_R4
*Shell Section, elset=ES4_M1_E4_R4, material=MATERIAL-1
0.1, 5
*End Part
**  
**
** ASSEMBLY
**
*Assembly, name=Assembly
**  
*Instance, name=PART-1-1, part=PART-1
*End Instance
**  
*Nset, nset=ALL, instance=PART-1-1, generate
   1,  153,    1
*Nset, nset=NS_BOUNDARY_5, instance=PART-1-1, generate
  1,  34,   3
*Nset, nset=SET-2, instance=PART-1-1, generate
  1,  34,   3
*End Assembly
*Amplitude, name=AMP-1, definition=SMOOTH STEP
           0.02,          0.0063,            0.04,         0.00364,            0.06,         0.00099,            0.08,         0.00428
            0.1,         0.00758,            0.12,         0.01087,            0.14,         0.00682,            0.16,         0.00277
           0.18,        -0.00128,             0.2,         0.00368,            0.22,         0.00864,            0.24,          0.0136
           0.26,         0.00727,            0.28,         0.00094,             0.3,          0.0042,            0.32,         0.00221
           0.34,         0.00021,            0.36,         0.00444,            0.38,         0.00867,             0.4,          0.0129
           0.42,         0.01713,            0.44,        -0.00343,            0.46,          -0.024,            0.48,        -0.00992
            0.5,         0.00416,            0.52,         0.00528,            0.54,         0.01653,            0.56,         0.02779
           0.58,         0.03904,             0.6,         0.02449,            0.62,         0.00995,            0.64,         0.00961
           0.66,         0.00926,            0.68,         0.00892,             0.7,        -0.00486,            0.72,        -0.01864
           0.74,        -0.03242,            0.76,        -0.03365,            0.78,        -0.05723,             0.8,        -0.04534
           0.82,        -0.03346,            0.84,        -0.03201,            0.86,        -0.03056,            0.88,        -0.02911
            0.9,        -0.02766,            0.92,        -0.04116,            0.94,        -0.05466,            0.96,        -0.06816
           0.98,        -0.08166,              1.,        -0.06846,            1.02,        -0.05527,            1.04,        -0.04208
           1.06,        -0.04259,            1.08,        -0.04311,             1.1,        -0.02428,            1.12,        -0.00545
           1.14,         0.01338,            1.16,         0.03221,            1.18,         0.05104,             1.2,         0.06987
           1.22,          0.0887,            1.24,         0.04524,            1.26,         0.00179,            1.28,        -0.04167
            1.3,        -0.08513,            1.32,        -0.12858,            1.34,        -0.17204,            1.36,        -0.12908
           1.38,        -0.08613,             1.4,        -0.08902,            1.42,        -0.09192,            1.44,        -0.09482
           1.46,        -0.09324,            1.48,        -0.09166,             1.5,        -0.09478,            1.52,        -0.09789
           1.54,        -0.12902,            1.56,        -0.07652,            1.58,        -0.02401,             1.6,         0.02849
** ... 368 like lines cut
** 
** MATERIALS
** 
**      ---------------------------------------------------
**      ---- *MATERIAL ------------------------------------
**      ---------------------------------------------------
** 
*Material, name=MATERIAL-1
*Density
2500.,
*Elastic
 3e+10, 0.2
*Material, name=MATERIAL-2
*Density
7800.,
*Elastic
 2.1e+11, 0.2
** ----------------------------------------------------------------
** 
** STEP: Step-1
** 
*Step, name=Step-1, nlgeom=NO, inc=10000
*Dynamic,direct
0.02,31.,
** 
** BOUNDARY CONDITIONS
** 
** Name: Disp-BC-1 Type: Displacement/Rotation
*Boundary, amplitude=AMP-1
SET-2, 1, 1, 1.
** Name: Disp-BC-2 Type: Displacement/Rotation
*Boundary, amplitude=AMP-1
SET-2, 2, 2
** Name: Disp-BC-3 Type: Displacement/Rotation
*Boundary, amplitude=AMP-1
SET-2, 3, 3
** Name: Disp-BC-4 Type: Displacement/Rotation
*Boundary, amplitude=AMP-1
SET-2, 4, 4
** Name: Disp-BC-5 Type: Displacement/Rotation
*Boundary, amplitude=AMP-1
SET-2, 5, 5
** Name: Disp-BC-6 Type: Displacement/Rotation
*Boundary, amplitude=AMP-1
SET-2, 6, 6
** 
** OUTPUT REQUESTS
** 
*Restart, write, frequency=0
** 
** FIELD OUTPUT: F-Output-1
** 
*Output, field, variable=PRESELECT
** 
** HISTORY OUTPUT: H-Output-1
** 
*Output, history, frequency=1
*Node Output, nset=ALL
A1, 
*End Step
